<?xml version="1.0" encoding="UTF-8"?>

<!-- generated on 2024-06-08 18:06:00 by Eclipse SUMO polyconvert Version 1.17.0
<configuration xmlns:xsi="http://www.w3.org/2001/XMLSchema-instance" xsi:noNamespaceSchemaLocation="http://sumo.dlr.de/xsd/polyconvertConfiguration.xsd">

    <input>
        <net-file value="C:/Doc_Travail_Dominique/AGETIPA_2024/2024_4-PROJET SUMO Step2/PDU_MODELISATION_MESOSCOPIQUE/Scenarios/Sumo_ SDT 2021-MESO/Réseau OSM/osm_VF.net.xml"/>
        <shapefile-prefixes value="C:/Doc_Travail_Dominique/AGETIPA_2024/2024_4-PROJET SUMO Step2/PDU_MODELISATION_MESOSCOPIQUE/Scenarios/Sumo_ SDT 2021-MESO/ZONE SIMULATION SDT/sdt-polygon_v2"/>
        <shapefile.guess-projection value="false"/>
        <shapefile.traditional-axis-mapping value="true"/>
        <shapefile.id-column value="NOM"/>
        <shapefile.add-param value="True"/>
    </input>

    <output>
        <output-file value="C:/Doc_Travail_Dominique/AGETIPA_2024/2024_4-PROJET SUMO Step2/PDU_MODELISATION_MESOSCOPIQUE/Scenarios/Sumo_ SDT 2021-MESO/SDT - TAZ/Sdt-MacroZone.taz.xml"/>
    </output>

    <projection>
        <proj.utm value="true"/>
        <proj.plain-geo value="false"/>
    </projection>

    <processing>
        <all-attributes value="true"/>
        <ignore-errors value="true"/>
    </processing>

</configuration>
-->

<additional xmlns:xsi="http://www.w3.org/2001/XMLSchema-instance" xsi:noNamespaceSchemaLocation="http://sumo.dlr.de/xsd/additional_file.xsd">
    <location netOffset="751064.25,2106749.38" convBoundary="9.21,0.00,27743.53,33978.70" origBoundary="47.324491,-19.082063,47.707990,-18.728777" projParameter="+proj=utm +zone=38 +ellps=WGS84 +datum=WGS84 +units=m +no_defs"/>

    <poly id="AEROPORT" type="unknown" color="51,128,255" fill="1" layer="-1.00" shape="11842.441647,25022.274917 11677.968378,25304.994624 11190.302401,25342.961450 10466.375088,25305.437529 10135.039863,25601.122672 9924.126895,25746.609654 9583.554194,25878.717751 9620.043623,26234.379666 9601.244319,26240.405039 9574.659248,26262.262145 9551.927570,26273.872409 9525.420798,26278.889550 9493.159478,26287.645298 9447.657604,26291.825587 9397.390678,26302.708118 9368.020100,26306.667828 9336.736267,26309.762531 9303.463629,26313.873879 9258.882121,26323.689833 9225.740235,26329.681159 9186.892770,26342.402342 9154.806135,26363.563510 9132.208425,26384.587863 9101.983780,26410.476574 9070.960319,26447.788045 9044.571092,26476.507291 9021.064258,26500.420571 8994.698499,26531.020654 8957.079952,26571.197004 8926.958407,26604.729059 8905.320757,26634.260301 8870.450676,26660.216561 8864.418744,26666.388735 8888.089625,26677.033210 8966.689157,26701.191012 9027.774890,26766.843333 9817.547792,27207.992570 10172.128663,27553.798594 10304.285414,27378.963145 10428.081771,27285.650521 10513.389457,27231.080535 10624.087689,27121.214419 10735.584861,27091.756641 10821.191748,27088.452747 10922.250092,27059.019335 10963.356590,27004.176362 10952.578598,26965.341784 10949.641872,26913.446514 10983.093509,26884.509887 11040.219312,26873.742013 11079.324229,26901.991663 11118.536421,26930.240453 11178.526375,26958.311173 11235.572868,26949.975310 11320.811040,26905.151076 11393.171245,26852.636619 11447.131728,26782.110794 11524.625109,26734.727654 11594.240954,26674.500970 11658.620438,26616.788007 11686.934880,26575.075628 11746.250541,26533.042380 11821.659933,26540.186628 11857.643149,26495.710649 11924.912477,26471.843263 11958.662284,26471.590208 11986.831507,26427.227448 11978.422953,26346.720127 11954.638960,26297.654849 11920.662134,26266.792253 11878.811739,26230.720410 11854.644613,26132.270483 11890.207478,26035.858626 11956.840036,25921.075101 11956.272752,25850.980238 11984.067743,25757.332697 12022.158698,25653.135909 12034.686497,25606.338213 12018.433819,25523.272920 12074.732233,25416.387267 12118.438565,25366.705678 12168.123442,25307.310227 12172.156657,25286.655954 12183.447679,25264.462090 12195.371652,25250.117529 12204.516373,25232.933852 12222.097224,25207.877479 12231.183089,25186.481900 12236.758371,25170.787940 12245.857912,25150.062627 12247.851202,25134.307614 12242.821143,25121.531109 12224.170098,25108.174491 12199.926208,25101.206731 12181.295000,25089.280763 12169.709482,25067.962492 12155.862298,25035.366167 12142.893388,25013.398729 12129.263498,24996.429457 12105.726332,24995.209229 12078.765538,25005.333095 12055.234283,25011.977248 12038.212269,25009.223436 12018.039072,24992.347172 11998.681237,24973.233052 11980.733026,24956.989144 11970.062042,24947.720276 11964.990366,24947.130985 11934.291432,24938.924784 11896.533787,24931.366070 11842.441647,25022.274917">
        <param key="COMMUNE" value="Ivato Aeroport"/>
        <param key="C_CODE" value="103112"/>
        <param key="DISTRICT" value="Ambohidratrimo"/>
        <param key="DIST_PCODE" value="MDG11103"/>
        <param key="D_CODE" value="103"/>
        <param key="ID" value="0"/>
        <param key="P_CODE" value="MD11103112"/>
        <param key="REGION" value="Analamanga"/>
        <param key="REG_PCODE" value="MDG11"/>
        <param key="R_CODE" value="11"/>
        <param key="UPTABID" value="0"/>
    </poly>
    <poly id="IX" type="unknown" color="51,128,255" fill="1" layer="-1.00" shape="22169.192752,19718.095347 22232.668931,19710.625964 22266.769530,19742.248374 22844.739594,19405.486911 23325.345752,18981.301073 23384.176496,18973.899219 23726.982143,18931.081590 24871.446745,18836.667129 25102.321456,18819.072847 25355.450861,18588.697499 25435.857508,18528.808205 25813.786886,18203.210774 25823.080819,18204.396062 25951.017539,18277.932816 26152.588675,18247.247775 26351.001926,18160.003437 26403.458754,17979.456237 26253.472271,17770.014738 26159.442185,17580.241246 26081.623442,17530.002164 26046.181267,17351.640143 25573.394471,16278.720756 25538.116949,16160.294685 25519.698228,16098.536437 25324.951248,15998.087207 25170.722016,15927.707295 24939.646536,15822.140401 24563.707090,15652.041562 24559.987805,15643.236416 24555.828588,15633.104036 24553.866381,15628.267031 24549.816231,15618.353899 24554.304024,15600.896778 24554.857736,15588.814908 24540.152900,15584.932045 24523.288388,15578.315068 24522.410948,15547.543430 24526.973236,15528.084483 24525.472870,15512.046895 24522.677313,15494.038632 24519.032015,15461.858632 24514.058867,15431.810725 24511.151698,15399.064382 24511.040171,15384.336307 24502.772749,15360.198782 24498.004693,15344.207784 24498.021306,15331.029613 24505.638645,15304.661619 24223.212198,14448.996270 24712.255616,13659.777802 24717.403944,13651.500870 24483.709595,13452.380379 24251.185941,13254.121236 24243.155430,13253.025903 23124.445850,13097.313283 22748.307986,13273.750109 22405.656825,13434.634661 22332.284246,13197.578908 22215.652722,12820.821274 22089.865290,12753.774569 21969.498777,12689.635559 21959.744804,11903.382913 21908.766699,11346.013406 21880.633173,11382.424343 21848.756649,11401.055083 21812.800906,11407.231564 21767.159600,11406.682877 21728.261655,11399.165103 21691.119855,11382.327446 21658.948152,11365.739472 21624.813960,11352.389423 21582.972957,11338.161607 21548.919717,11330.694428 21505.125371,11333.993018 21467.310875,11342.966310 21432.505809,11362.741557 21410.325886,11381.343294 21384.272984,11408.751832 21349.895068,11450.566768 21324.298536,11466.124491 21287.980084,11490.574829 21265.521209,11497.221670 21226.718674,11503.431324 21183.977796,11514.475932 21142.381232,11531.254644 21115.412165,11560.671799 21074.230820,11599.040009 21054.674990,11616.599714 21029.589251,11638.126808 20986.912950,11653.043171 20943.306741,11662.203666 20895.723979,11666.443600 20855.898995,11667.688585 20830.469903,11658.209971 20814.843453,11649.572048 20794.287218,11627.396195 20763.873465,11594.604280 20719.893038,11563.904078 20682.775038,11540.852567 20640.623388,11526.967506 20584.687421,11558.351629 20533.796166,11588.003634 20458.243644,11632.525261 20391.299617,11668.061433 20349.002472,11672.778607 20300.666326,11661.515452 20269.830937,11642.805391 20256.549781,11614.096471 20226.450768,11566.243116 20209.662847,11549.760016 20174.618162,11524.910603 20142.429403,11500.127981 20101.885602,11480.996750 20058.601493,11461.807802 20034.855713,11452.295509 20005.581760,11446.960709 19956.816777,11441.804722 19873.143363,11428.518164 19815.926158,11415.056086 19765.752377,11407.149952 19726.703880,11396.311495 19662.452607,11377.423498 19624.793861,11368.004572 19596.968731,11361.207127 19578.702057,11351.620199 19541.038804,11334.556797 19506.046858,11320.223261 19458.652572,11308.062005 19412.695368,11300.091528 19365.311079,11296.245110 19305.499043,11299.554119 19215.659520,11311.382669 19181.679161,11315.862015 19128.482242,11317.736303 19162.620408,11382.256375 19808.754243,11848.561250 20114.151098,12068.845734 20118.952940,12072.758968 20177.193203,12127.727516 20132.177659,12228.293628 20075.795499,12257.579932 20054.268306,12263.098426 20022.916470,12274.190191 19993.308734,12289.680367 19966.542404,12311.561201 19951.445822,12338.590100 19947.964469,12345.832729 19950.705773,12360.198934 19962.568035,12371.759239 19985.030422,12379.741149 20005.715012,12374.119463 20032.668508,12379.273144 20052.574871,12392.599030 20060.934089,12416.845379 20056.611935,12438.393339 20038.667738,12451.176966 20017.171466,12451.372035 19969.456217,12453.511647 19933.657806,12463.779087 19905.825428,12470.279460 19882.493042,12482.136381 19851.256562,12501.311965 19819.079177,12535.674197 19803.071778,12558.277860 19785.273779,12580.906107 19768.447430,12605.297488 19764.211474,12640.472789 19773.419636,12664.592135 19797.896027,12687.826708 19822.279750,12704.748300 19840.418236,12719.879656 19856.673537,12728.732619 19858.572224,12735.901416 19846.948640,12748.583518 19832.684770,12760.316543 19811.143872,12772.258908 19796.910739,12786.753316 19808.627799,12787.578457 19832.006346,12786.457549 19850.754966,12778.210096 19869.664458,12773.503430 19891.138047,12771.537523 19908.257647,12775.050293 19924.482137,12774.037665 19931.644455,12773.929317 19931.837846,12794.640019 19935.581618,12812.530159 19951.783246,12817.831463 19973.402211,12818.515947 19985.890993,12807.697906 19991.177490,12794.106828 19997.382041,12778.737224 19998.015745,12757.239319 19994.301996,12741.009917 19978.007782,12722.311427 19973.507714,12716.944865 19982.306307,12698.872549 19981.147695,12670.094914 19980.652882,12614.395914 20005.883974,12609.707800 20022.980015,12611.339637 20043.612727,12616.574830 20072.448515,12620.802668 20105.684538,12616.109404 20128.939784,12598.829894 20143.172923,12584.335459 20159.179447,12554.527499 20163.462539,12530.208205 20174.105326,12515.652948 20192.877530,12509.286390 20210.977061,12521.656432 20225.573371,12539.598294 20257.906863,12544.668162 20275.041993,12549.071325 20286.850849,12556.099395 20310.338427,12569.376133 20320.281124,12586.405335 20323.682207,12602.747367 20335.683572,12623.281900 20333.644641,12642.469896 20323.099886,12663.998502 20325.443892,12687.343299 20325.672612,12717.459334 20339.626061,12763.883373 20324.766636,12792.681405 20284.481434,12827.599970 20275.974716,12829.830517 20274.344088,12833.285838 20271.624571,12834.768849 20268.452382,12834.374428 20261.476290,12833.030396 20255.571061,12832.458109 20251.046335,12833.185360 20244.981941,12836.376604 20242.609611,12839.958035 20236.604188,12847.351294 20230.291537,12862.621731 20224.381465,12876.658158 20220.823821,12885.682466 20220.075758,12892.122377 20221.836244,12897.521258 20227.039842,12900.100447 20231.819980,12902.362895 20243.988646,12905.946005 20258.179761,12910.613304 20269.314216,12914.885240 20286.516562,12923.490376 20288.879738,12926.893168 20302.868139,12932.002380 20309.764212,12934.667851 20318.824419,12934.534049 20323.167308,12935.799463 20370.083557,12951.066783 20413.383113,12971.146397 20389.342467,12999.408813 20376.043655,13020.209385 20367.245831,13045.475988 20363.024426,13074.337490 20356.950584,13105.765589 20351.733958,13130.983020 20344.354878,13160.220434 20323.431921,13185.225524 20313.372698,13196.454037 20305.579430,13204.212053 20291.253608,13205.299253 20271.363568,13200.057964 20249.727383,13191.178721 20229.867400,13173.409749 20217.917989,13142.018330 20204.216144,13113.312766 20193.117579,13082.024490 20186.625292,13055.971846 20179.354003,13041.682526 20163.769774,13013.892831 20131.359948,13010.594581 20105.394409,13015.288640 20082.995458,13026.247395 20063.313419,13035.402971 20057.973224,13052.536586 20056.329758,13069.620093 20050.394014,13103.818675 20048.735845,13127.206040 20048.907422,13153.350152 20049.827081,13165.960150 20058.027826,13215.352729 20059.668307,13226.285868 20066.773006,13265.731466 20066.952856,13277.687096 20051.315231,13304.160022 20032.307688,13301.893315 20004.741556,13298.525584 19978.132657,13295.150062 19960.438493,13296.074563 19935.303629,13307.515832 19904.147248,13310.180887 19877.763644,13315.218517 19877.971598,13336.709560 19885.343578,13358.302381 19902.256850,13368.911072 19919.035701,13377.199483 19931.419672,13395.069328 19920.388454,13433.892080 19912.200360,13465.127203 19915.090080,13519.025641 19926.206639,13565.712883 19932.369006,13583.683407 19933.723096,13604.044461 19918.526927,13653.327283 19914.164224,13708.435433 19925.362453,13761.105564 19940.838275,13802.964499 20027.725270,13978.922148 19998.584211,14149.130086 19952.012313,14150.809824 19943.813049,14318.615978 19935.706623,14355.843965 19928.763687,14385.958272 19924.335715,14421.905585 19896.860395,14431.724817 19872.931571,14446.358061 19841.939325,14468.182998 19829.523133,14483.873251 19803.802053,14491.226748 19780.080247,14520.146759 19739.773467,14582.861624 19727.939023,14594.995030 19713.752799,14627.439579 19708.097849,14658.644028 19699.992141,14703.066224 19695.456152,14724.725923 19693.202604,14743.925608 19695.729901,14765.477816 19668.345279,14788.474065 19654.056743,14792.112384 19643.305820,14799.474144 19618.393273,14833.176620 19604.143507,14853.754641 19597.199710,14883.768846 19586.601154,14901.745641 19570.032680,14929.456724 19561.898213,14957.159235 19559.788812,14993.067618 19552.891959,15033.927846 19542.403227,15066.422323 19536.449678,15070.052866 19540.359110,15114.417318 19545.484717,15155.099709 19554.381950,15216.103460 19564.144317,15242.439681 19559.525722,15258.006428 19539.349667,15284.556123 19526.280754,15299.140972 19527.770682,15336.220784 19522.162679,15378.281232 19510.366825,15408.354885 19502.177774,15432.395655 19493.033055,15477.946905 19480.118272,15510.471092 19467.186124,15548.978954 19453.107073,15581.422550 19437.719346,15603.130434 19435.357646,15615.126716 19434.511604,15651.134868 19434.810828,15685.902980 19435.029979,15723.003121 19435.447205,15766.195251 19438.164970,15808.137950 19435.874993,15824.896461 19431.300045,15836.700612 19427.173358,15842.737713 19409.016814,15833.479785 19394.317157,15808.884707 19388.354177,15782.937837 19383.722877,15754.318567 19373.839504,15741.511319 19369.419459,15734.813282 19358.263329,15728.880438 19340.595429,15732.015868 19294.848699,15746.866396 19274.713893,15754.134310 19249.595541,15752.387401 19233.634959,15742.211098 19168.421916,15701.406979 19153.882767,15694.521072 19143.900993,15689.909470 19132.231344,15684.761269 19121.747793,15681.364463 19109.009248,15675.684636 19072.963208,15661.589262 19059.322005,15658.568340 19041.888805,15656.058536 19033.451233,15655.626852 19013.628152,15662.662096 18962.557733,15725.103918 18943.813393,15740.985599 18919.791904,15756.399887 18898.839054,15765.565556 18868.736135,15768.882136 18851.002101,15766.925097 18826.726467,15758.187226 18815.018770,15750.387777 18797.321260,15736.683530 18794.125546,15734.408161 18788.265741,15730.283353 18784.755558,15727.900477 18775.938056,15723.369466 18766.846101,15721.622324 18762.622356,15720.796163 18758.497635,15719.969196 18742.867775,15717.985045 18734.747365,15717.991040 18720.182624,15717.088870 18706.334327,15713.969574 18695.652630,15711.574972 18688.991144,15710.348385 18683.033582,15728.707596 18677.726994,15740.857865 18673.320864,15764.287449 18670.214001,15774.968977 18669.905713,15782.726044 18672.832340,15788.445624 18679.918254,15790.109020 18682.169463,15800.046570 18699.716903,15817.624314 18704.671324,15825.088443 18712.525250,15828.846831 18723.508806,15829.798137 18728.165231,15831.061041 18732.012113,15856.584795 18731.646688,15860.359986 18724.058878,15860.911969 18724.705658,15876.515892 18725.277039,15894.011540 18716.438425,15902.108124 18714.301831,15929.611663 18719.490854,15931.420562 18722.134986,15968.370811 18717.616102,15998.235096 18718.301910,16016.610332 18715.037616,16031.275481 18716.268655,16057.841104 18719.664658,16081.707549 18719.323311,16108.746227 18717.131994,16139.672222 18716.313651,16155.748326 18721.394233,16171.626387 18735.040429,16189.476014 18754.599253,16207.797882 18773.332318,16205.754478 18781.181672,16216.056767 18779.294349,16231.591241 18779.445849,16242.106198 18773.588366,16259.584072 18761.773555,16281.242804 18755.387944,16298.724969 18748.576712,16323.745026 18746.206852,16334.740748 18746.373658,16353.230270 18746.495049,16369.178666 18741.648131,16391.180987 18737.751182,16406.191476 18749.515779,16432.161179 18752.109568,16443.636859 18752.280026,16462.576617 18720.990129,16464.031664 18759.297620,16547.209401 18768.782325,16546.511942 18780.408923,16563.627565 18793.794066,16592.005532 18794.917173,16604.283634 18779.642523,16605.388364 18754.284130,16615.730440 18735.139947,16626.082042 18711.795645,16637.498386 18694.648167,16654.907915 18673.341697,16668.288857 18654.164723,16683.743718 18638.907360,16685.958955 18633.831691,16692.003738 18648.265110,16706.194840 18669.752847,16719.177932 18703.363840,16732.202577 18725.858679,16742.175723 18741.816700,16744.937726 18758.306234,16755.219836 18754.371130,16767.569065 18749.609896,16780.825537 18741.389064,16795.891174 18737.699598,16802.925280 18740.827950,16808.082904 18750.416628,16829.317513 18764.376438,16847.174632 18778.943474,16862.575376 18797.610674,16877.812723 18812.106079,16888.461256 18831.647779,16898.588496 18855.402407,16908.211222 18892.495578,16921.187589 18931.332767,16938.562385 18937.017927,16945.570338 18937.023178,16953.324863 18937.617567,16957.412443 18949.999858,16960.893926 18962.878208,16969.564437 18966.376674,16970.506578 18977.515680,16968.244776 18985.276849,16943.327060 19001.663587,16954.160351 19055.149545,16992.928794 19065.532067,17003.190519 19061.964177,17011.984680 19062.189028,17034.576171 19057.095334,17039.420396 19053.034070,17043.355699 19060.755189,17052.098145 19072.813353,17076.624673 19072.946731,17085.929075 19069.411602,17096.724149 19069.121045,17119.870153 19066.655461,17139.401690 19066.219777,17152.813135 19068.965204,17167.719626 19080.399988,17185.607308 19093.877275,17198.925711 19114.620437,17218.788968 19121.412616,17228.989825 19133.384468,17247.973799 19138.587879,17257.647248 19140.269082,17271.581813 19148.521899,17280.760208 19154.096890,17294.523052 19181.548582,17289.917410 19389.529697,17214.914160 19635.997865,16995.352708 19641.205767,17005.576460 19650.354825,17018.409747 19661.983459,17027.650771 19669.765569,17033.741171 19687.819489,17042.559763 19702.046069,17042.464164 19718.731453,17037.235557 19739.169289,17021.550283 19751.865861,16995.661839 19761.855897,16964.732389 19775.796847,16937.613103 19792.364534,16916.886266 19810.239404,16891.486041 19815.099572,16885.322916 19833.013273,16869.778210 19856.158539,16859.243977 19884.343939,16847.428046 19917.778387,16840.742519 19973.191361,16845.475242 20006.742629,16854.177888 20133.278998,16891.772435 20243.182836,16960.390531 20353.544079,17059.903331 20435.683545,17133.249847 20680.619489,17185.061518 20687.385166,17201.136147 20899.104637,17707.979031 20910.893555,18154.499616 21237.055710,18490.322712 21299.895915,18554.971341 21609.287162,18925.152085 21933.040081,19252.921713 21933.126976,19265.658653 21935.871246,19287.549527 21943.719601,19297.731964 21950.321459,19317.019980 21947.843993,19335.110939 21943.139414,19387.900795 21957.795033,19445.726609 21959.425949,19492.111224 21948.102993,19525.613190 21953.852181,19601.512112 21957.188749,19685.195281 21960.105895,19726.356327 21957.865745,19767.589250 21960.854970,19827.801149 22039.452128,19823.661149 22048.128456,19810.793045 22065.005809,19782.419105 22080.377385,19766.795035 22109.367968,19744.326381 22131.574948,19726.945805 22169.192752,19718.095347">
        <param key="COMMUNE" value="Ambohimangakely"/>
        <param key="C_CODE" value="102099"/>
        <param key="DISTRICT" value="Antananarivo Avaradrano"/>
        <param key="DIST_PCODE" value="MDG11102"/>
        <param key="D_CODE" value="102"/>
        <param key="ID" value="110605"/>
        <param key="P_CODE" value="MDG11102099"/>
        <param key="REGION" value="Analamanga"/>
        <param key="REG_PCODE" value="MDG11"/>
        <param key="R_CODE" value="11"/>
        <param key="UPTABID" value="5"/>
    </poly>